@<TRIPOS>MOLECULE
*****
  226   237     0     0     0
SMALL
NO_CHARGES

@<TRIPOS>ATOM
      1 C1         25.9390   95.8920   29.1580 C.3       1   *0        0.0000
      2 C2         24.9250   95.3390   28.1360 C.3       1   *0        0.0000
      3 C3         25.3950   94.0640   27.4090 C.3       1   *0        0.0000
      4 O1         24.9830   94.0940   26.0570 O.3       1   *0        0.0000
      5 C4         26.9170   93.9100   27.4770 C.3       1   *0        0.0000
      6 C5         27.4520   93.8580   28.9310 C.3       1   *0        0.0000
      7 C6         28.9630   94.1220   28.8400 C.3       1   *0        0.0000
      8 C7         29.6790   94.0050   30.1940 C.3       1   *0        0.0000
      9 O2         30.9150   94.6780   30.0290 O.3       1   *0        0.0000
     10 C8         28.8360   94.5160   31.3990 C.3       1   *0        0.0000
     11 C9         29.7050   95.1300   32.5270 C.3       1   *0        0.0000
     12 C10        30.7680   94.2320   33.1680 C.3       1   *0        0.0000
     13 C11        31.1360   94.9620   34.4670 C.3       1   *0        0.0000
     14 C12        30.1270   96.1230   34.6260 C.3       1   *0        0.0000
     15 C13        29.9710   96.6410   36.0910 C.3       1   *0        0.0000
     16 C14        29.1230   97.9360   36.1230 C.3       1   *0        0.0000
     17 C15        29.4820   98.7570   37.3830 C.3       1   *0        0.0000
     18 C16        28.6470  100.0220   37.3130 C.2       1   *0        0.0000
     19 C17        29.4600   95.6380   37.1510 C.3       1   *0        0.0000
     20 C18        28.9210   95.6890   33.7360 C.3       1   *0        0.0000
     21 C19        28.0480   94.6210   34.4550 C.3       1   *0        0.0000
     22 C20        27.9900   96.8080   33.1950 C.3       1   *0        0.0000
     23 O3         28.6970   97.9140   32.6620 O.3       1   *0        0.0000
     24 C21        27.0400   96.2670   32.1080 C.3       1   *0        0.0000
     25 C22        27.7290   95.5080   30.9330 C.3       1   *0        0.0000
     26 C23        26.7190   94.8050   29.9470 C.3       1   *0        0.0000
     27 C24        25.6840   93.9420   30.7260 C.3       1   *0        0.0000
     28 O4         28.8010  100.8610   36.4450 O.2       1   *0        0.0000
     29 C25        25.6260  112.0850   33.8520 C.3       1   *0        0.0000
     30 O5         24.7370  111.4890   34.8380 O.3       1   *0        0.0000
     31 C26        25.9130  111.0610   32.7310 C.3       1   *0        0.0000
     32 O6         24.6740  110.7160   32.1430 O.3       1   *0        0.0000
     33 C27        26.6240  109.8250   33.3130 C.3       1   *0        0.0000
     34 O7         26.9510  108.9380   32.2620 O.3       1   *0        0.0000
     35 C28        27.9130  110.2500   34.0370 C.3       1   *0        0.0000
     36 C29        27.5780  111.2670   35.1460 C.3       1   *0        0.0000
     37 O8         26.8820  112.3820   34.5210 O.3       1   *0        0.0000
     38 C30        28.7960  111.8550   35.8720 C.3       1   *0        0.0000
     39 O9         29.7350  112.4070   34.9720 O.3       1   *0        0.0000
     40 C31        21.3180  112.6360   37.0440 C.3       1   *0        0.0000
     41 O10        21.7990  111.8520   38.1710 O.3       1   *0        0.0000
     42 C32        21.1080  111.7120   35.8240 C.3       1   *0        0.0000
     43 O11        20.1690  110.7220   36.1980 O.3       1   *0        0.0000
     44 C33        22.4460  111.0780   35.4050 C.3       1   *0        0.0000
     45 O12        22.2520  110.2930   34.2450 O.3       1   *0        0.0000
     46 C34        23.4830  112.1720   35.1010 C.3       1   *0        0.0000
     47 C35        23.6620  113.0800   36.3350 C.3       1   *0        0.0000
     48 O13        22.3500  113.6030   36.7080 O.3       1   *0        0.0000
     49 C36        24.5710  114.2990   36.1210 C.3       1   *0        0.0000
     50 O14        24.1520  115.0840   35.0240 O.3       1   *0        0.0000
     51 C37        21.3140  111.4970   42.3240 C.3       1   *0        0.0000
     52 O15        22.0690  110.2550   42.2130 O.3       1   *0        0.0000
     53 C38        20.0310  111.3960   41.4730 C.3       1   *0        0.0000
     54 O16        19.2600  110.3300   41.9910 O.3       1   *0        0.0000
     55 C39        20.4000  111.1560   39.9980 C.3       1   *0        0.0000
     56 O17        19.2200  111.1610   39.2180 O.3       1   *0        0.0000
     57 C40        21.3440  112.2590   39.4860 C.3       1   *0        0.0000
     58 C41        22.5850  112.3910   40.3910 C.3       1   *0        0.0000
     59 O18        22.1330  112.5580   41.7650 O.3       1   *0        0.0000
     60 C42        23.4660  113.6040   40.0600 C.3       1   *0        0.0000
     61 O19        22.7490  114.8190   40.1380 O.3       1   *0        0.0000
     62 C43        24.0910  107.5970   44.8130 C.3       1   *0        0.0000
     63 O20        25.0740  107.3040   43.7810 O.3       1   *0        0.0000
     64 C44        22.6830  107.1940   44.3200 C.3       1   *0        0.0000
     65 O21        22.7200  105.8170   44.0020 O.3       1   *0        0.0000
     66 C45        22.2870  108.0370   43.0960 C.3       1   *0        0.0000
     67 O22        20.9690  107.7070   42.7050 O.3       1   *0        0.0000
     68 C46        22.3500  109.5350   43.4400 C.3       1   *0        0.0000
     69 C47        23.7730  109.8950   43.9100 C.3       1   *0        0.0000
     70 O23        24.1060  109.0340   45.0410 O.3       1   *0        0.0000
     71 C48        23.9520  111.3430   44.3930 C.3       1   *0        0.0000
     72 O24        23.0360  111.6750   45.4160 O.3       1   *0        0.0000
     73 C49        28.9850  105.7970   43.4100 C.3       1   *0        0.0000
     74 O25        28.7450  105.7320   41.9760 O.3       1   *0        0.0000
     75 C50        27.9640  104.9020   44.1440 C.3       1   *0        0.0000
     76 O26        28.1620  103.5750   43.6970 O.3       1   *0        0.0000
     77 C51        26.5330  105.3890   43.8500 C.3       1   *0        0.0000
     78 O27        25.6170  104.6140   44.5970 O.3       1   *0        0.0000
     79 C52        26.3800  106.8700   44.2410 C.3       1   *0        0.0000
     80 C53        27.4420  107.7360   43.5360 C.3       1   *0        0.0000
     81 O28        28.7520  107.1690   43.8280 O.3       1   *0        0.0000
     82 C54        27.4700  109.1950   44.0130 C.3       1   *0        0.0000
     83 O29        27.6640  109.2940   45.4090 O.3       1   *0        0.0000
     84 C55        31.0090  105.3880   38.4290 C.3       1   *0        0.0000
     85 O30        30.0600  106.2720   37.7640 O.3       1   *0        0.0000
     86 C56        30.2740  104.1280   38.9320 C.3       1   *0        0.0000
     87 O31        29.6970  103.4990   37.8050 O.3       1   *0        0.0000
     88 C57        29.2020  104.5210   39.9610 C.3       1   *0        0.0000
     89 C58        29.8390  105.2870   41.1330 C.3       1   *0        0.0000
     90 C59        30.5860  106.5290   40.6010 C.3       1   *0        0.0000
     91 O32        31.5390  106.0920   39.5840 O.3       1   *0        0.0000
     92 C60        31.4000  107.2950   41.6550 C.3       1   *0        0.0000
     93 O33        32.3300  106.4600   42.3120 O.3       1   *0        0.0000
     94 N1         28.5530  103.3110   40.4520 N.am      1   *0        0.0000
     95 C61        27.2260  103.1470   40.5680 C.2       1   *0        0.0000
     96 C62        26.7500  101.7280   40.8940 C.3       1   *0        0.0000
     97 C63        25.9190  101.2020   39.7000 C.3       1   *0        0.0000
     98 C64        26.8020  101.2360   38.4630 C.2       1   *0        0.0000
     99 N2         27.6940  100.1780   38.3160 N.am      1   *0        0.0000
    100 O34        26.4100  104.0540   40.4010 O.2       1   *0        0.0000
    101 O35        26.7540  102.1460   37.6550 O.2       1   *0        0.0000
    102 C65        29.8820  108.7820   34.3680 C.3       1   *0        0.0000
    103 O36        28.4770  109.0600   34.6510 O.3       1   *0        0.0000
    104 C66        30.0710  107.2680   34.1240 C.3       1   *0        0.0000
    105 O37        29.2460  106.9060   33.0340 O.3       1   *0        0.0000
    106 C67        29.7040  106.4730   35.3890 C.3       1   *0        0.0000
    107 O38        29.9710  105.1030   35.1670 O.3       1   *0        0.0000
    108 C68        30.5390  106.9650   36.5830 C.3       1   *0        0.0000
    109 C69        30.3230  108.4750   36.7930 C.3       1   *0        0.0000
    110 O39        30.6550  109.1500   35.5440 O.3       1   *0        0.0000
    111 C70        31.2100  109.0860   37.8870 C.3       1   *0        0.0000
    112 O40        32.5830  108.8500   37.6520 O.3       1   *0        0.0000
    113 H1         27.3420   92.8280   29.2780 H         1   *0        0.0000
    114 H2         28.2500   96.2830   30.3670 H         1   *0        0.0000
    115 H3         28.3480   93.6370   31.8130 H         1   *0        0.0000
    116 H4         30.2460   95.9660   32.0780 H         1   *0        0.0000
    117 H5         26.6580   96.5110   28.6200 H         1   *0        0.0000
    118 H6         25.3960   96.5450   29.8410 H         1   *0        0.0000
    119 H7         23.9920   95.1110   28.6520 H         1   *0        0.0000
    120 H8         24.7160   96.1270   27.4110 H         1   *0        0.0000
    121 H9         24.9400   93.1940   27.8810 H         1   *0        0.0000
    122 H10        24.0240   94.1230   26.0320 H         1   *0        0.0000
    123 H11        27.2100   92.9960   26.9580 H         1   *0        0.0000
    124 H12        27.3630   94.7560   26.9490 H         1   *0        0.0000
    125 H13        29.4150   93.4090   28.1490 H         1   *0        0.0000
    126 H14        29.1160   95.1260   28.4370 H         1   *0        0.0000
    127 H15        29.8990   92.9530   30.3750 H         1   *0        0.0000
    128 H16        31.3980   94.2560   29.3150 H         1   *0        0.0000
    129 H17        31.6420   94.1220   32.5270 H         1   *0        0.0000
    130 H18        30.3490   93.2510   33.3950 H         1   *0        0.0000
    131 H19        31.0850   94.2520   35.2900 H         1   *0        0.0000
    132 H20        32.1490   95.3600   34.4050 H         1   *0        0.0000
    133 H21        30.6010   96.9570   34.1040 H         1   *0        0.0000
    134 H22        30.9840   96.9100   36.3970 H         1   *0        0.0000
    135 H23        28.0590   97.6950   36.1220 H         1   *0        0.0000
    136 H24        29.3540   98.5430   35.2480 H         1   *0        0.0000
    137 H25        29.2220   98.2050   38.2760 H         1   *0        0.0000
    138 H26        30.5280   99.0320   37.3470 H         1   *0        0.0000
    139 H27        29.6890   96.0090   38.1490 H         1   *0        0.0000
    140 H28        29.9450   94.6710   37.0510 H         1   *0        0.0000
    141 H29        28.3820   95.5090   37.0800 H         1   *0        0.0000
    142 H30        28.6610   93.8960   34.9890 H         1   *0        0.0000
    143 H31        27.3820   95.1080   35.1660 H         1   *0        0.0000
    144 H32        27.4250   94.0690   33.7570 H         1   *0        0.0000
    145 H33        27.3780   97.1820   34.0140 H         1   *0        0.0000
    146 H34        28.0620   98.5850   32.4010 H         1   *0        0.0000
    147 H35        26.4770   97.1100   31.7080 H         1   *0        0.0000
    148 H36        26.3200   95.6240   32.6070 H         1   *0        0.0000
    149 H37        24.9650   94.5740   31.2470 H         1   *0        0.0000
    150 H38        25.1190   93.2970   30.0550 H         1   *0        0.0000
    151 H39        26.1810   93.3020   31.4520 H         1   *0        0.0000
    152 H40        25.1980  112.9860   33.4320 H         1   *0        0.0000
    153 H41        26.5510  111.5040   31.9650 H         1   *0        0.0000
    154 H42        24.0940  110.3790   32.8300 H         1   *0        0.0000
    155 H43        25.9630  109.3160   34.0160 H         1   *0        0.0000
    156 H44        27.5240  109.3970   31.6430 H         1   *0        0.0000
    157 H45        28.5880  110.7080   33.3130 H         1   *0        0.0000
    158 H46        26.9500  110.7790   35.8930 H         1   *0        0.0000
    159 H47        28.4600  112.6340   36.5550 H         1   *0        0.0000
    160 H48        29.2780  111.0770   36.4590 H         1   *0        0.0000
    161 H49        29.3170  113.1330   34.5030 H         1   *0        0.0000
    162 H50        20.3900  113.1360   37.2880 H         1   *0        0.0000
    163 H51        20.7070  112.2760   34.9810 H         1   *0        0.0000
    164 H52        20.5000  110.2660   36.9750 H         1   *0        0.0000
    165 H53        22.8180  110.4400   36.2080 H         1   *0        0.0000
    166 H54        21.9260  110.8610   33.5430 H         1   *0        0.0000
    167 H55        23.1390  112.7590   34.2480 H         1   *0        0.0000
    168 H56        24.0890  112.4810   37.1390 H         1   *0        0.0000
    169 H57        24.5560  114.9140   37.0210 H         1   *0        0.0000
    170 H58        25.5950  113.9700   35.9560 H         1   *0        0.0000
    171 H59        23.2730  115.4220   35.2090 H         1   *0        0.0000
    172 H60        21.0640  111.7130   43.3550 H         1   *0        0.0000
    173 H61        19.4510  112.3170   41.5460 H         1   *0        0.0000
    174 H62        19.7910  109.5310   41.9670 H         1   *0        0.0000
    175 H63        20.8890  110.1860   39.8960 H         1   *0        0.0000
    176 H64        18.7980  112.0190   39.3110 H         1   *0        0.0000
    177 H65        20.8050  113.2080   39.4710 H         1   *0        0.0000
    178 H66        23.1950  111.4920   40.2850 H         1   *0        0.0000
    179 H67        24.2980  113.6410   40.7640 H         1   *0        0.0000
    180 H68        23.8720  113.4970   39.0580 H         1   *0        0.0000
    181 H69        22.4560  114.9420   41.0440 H         1   *0        0.0000
    182 H70        24.3220  107.0640   45.7260 H         1   *0        0.0000
    183 H71        21.9440  107.3530   45.1070 H         1   *0        0.0000
    184 H72        23.4100  105.6730   43.3500 H         1   *0        0.0000
    185 H73        22.9670  107.8260   42.2690 H         1   *0        0.0000
    186 H74        20.3770  107.8950   43.4370 H         1   *0        0.0000
    187 H75        21.6270  109.7500   44.2280 H         1   *0        0.0000
    188 H76        24.4580  109.7340   43.0780 H         1   *0        0.0000
    189 H77        24.9660  111.4670   44.7730 H         1   *0        0.0000
    190 H78        23.8190  112.0270   43.5570 H         1   *0        0.0000
    191 H79        23.2080  111.1120   46.1740 H         1   *0        0.0000
    192 H80        29.9950  105.4920   43.6530 H         1   *0        0.0000
    193 H81        28.1320  104.9360   45.2210 H         1   *0        0.0000
    194 H82        28.0600  103.5570   42.7430 H         1   *0        0.0000
    195 H83        26.3150  105.2720   42.7880 H         1   *0        0.0000
    196 H84        25.8140  104.7250   45.5300 H         1   *0        0.0000
    197 H85        26.4970  106.9640   45.3220 H         1   *0        0.0000
    198 H86        27.2430  107.7350   42.4640 H         1   *0        0.0000
    199 H87        28.2800  109.7190   43.5060 H         1   *0        0.0000
    200 H88        26.5340  109.6810   43.7510 H         1   *0        0.0000
    201 H89        28.5100  108.8960   45.6270 H         1   *0        0.0000
    202 H90        31.8070  105.1010   37.7570 H         1   *0        0.0000
    203 H91        30.9750  103.4350   39.3990 H         1   *0        0.0000
    204 H92        29.1190  104.1280   37.3680 H         1   *0        0.0000
    205 H93        28.4660  105.1640   39.4760 H         1   *0        0.0000
    206 H94        30.5300  104.6250   41.6570 H         1   *0        0.0000
    207 H95        29.8520  107.2170   40.1800 H         1   *0        0.0000
    208 H96        31.9400  108.1060   41.1650 H         1   *0        0.0000
    209 H97        30.7300  107.7340   42.3900 H         1   *0        0.0000
    210 H98        32.9590  106.1340   41.6630 H         1   *0        0.0000
    211 H99        29.1520  102.5160   40.6230 H         1   *0        0.0000
    212 H100       25.0620  101.8440   39.5490 H         1   *0        0.0000
    213 H101       25.6370  100.1780   39.9100 H         1   *0        0.0000
    214 H102       27.6510   99.4340   39.0320 H         1   *0        0.0000
    215 H103       27.6000  101.0680   41.0740 H         1   *0        0.0000
    216 H104       26.1300  101.7500   41.7910 H         1   *0        0.0000
    217 H105       30.2200  109.3360   33.5020 H         1   *0        0.0000
    218 H106       31.1080  107.0530   33.8640 H         1   *0        0.0000
    219 H107       28.3390  107.1370   33.2490 H         1   *0        0.0000
    220 H108       28.6430  106.6010   35.6110 H         1   *0        0.0000
    221 H109       30.9060  105.0010   34.9770 H         1   *0        0.0000
    222 H110       31.5950  106.7730   36.3820 H         1   *0        0.0000
    223 H111       29.2820  108.6460   37.0690 H         1   *0        0.0000
    224 H112       31.0390  110.1620   37.9230 H         1   *0        0.0000
    225 H113       30.9380  108.6660   38.8520 H         1   *0        0.0000
    226 H114       33.0870  109.2460   38.3670 H         1   *0        0.0000
@<TRIPOS>BOND
     1    1    2 1
     2    1   26 1
     3    1  117 1
     4    1  118 1
     5    2    3 1
     6    2  119 1
     7    2  120 1
     8    3    4 1
     9    3    5 1
    10    3  121 1
    11    4  122 1
    12    5    6 1
    13    5  123 1
    14    5  124 1
    15    6  113 1
    16    6    7 1
    17    6   26 1
    18    7    8 1
    19    7  125 1
    20    7  126 1
    21    8    9 1
    22    8   10 1
    23    8  127 1
    24    9  128 1
    25   10   11 1
    26   10   25 1
    27   10  115 1
    28   11   12 1
    29   11   20 1
    30   11  116 1
    31   12   13 1
    32   12  129 1
    33   12  130 1
    34   13   14 1
    35   13  131 1
    36   13  132 1
    37   14   15 1
    38   14   20 1
    39   14  133 1
    40   15   16 1
    41   15   19 1
    42   15  134 1
    43   16   17 1
    44   16  135 1
    45   16  136 1
    46   17   18 1
    47   17  137 1
    48   17  138 1
    49   18   99 am
    50   18   28 2
    51   19  139 1
    52   19  140 1
    53   19  141 1
    54   20   21 1
    55   20   22 1
    56   21  142 1
    57   21  143 1
    58   21  144 1
    59   22   23 1
    60   22   24 1
    61   22  145 1
    62   23  146 1
    63   24   25 1
    64   24  147 1
    65   24  148 1
    66   25   26 1
    67   25  114 1
    68   26   27 1
    69   27  149 1
    70   27  150 1
    71   27  151 1
    72   29   30 1
    73   29   31 1
    74   29   37 1
    75   29  152 1
    76   30   46 1
    77   31   32 1
    78   31   33 1
    79   31  153 1
    80   32  154 1
    81   33   34 1
    82   33   35 1
    83   33  155 1
    84   34  156 1
    85   35   36 1
    86   35  103 1
    87   35  157 1
    88   36   37 1
    89   36   38 1
    90   36  158 1
    91   38   39 1
    92   38  159 1
    93   38  160 1
    94   39  161 1
    95   40   41 1
    96   40   42 1
    97   40   48 1
    98   40  162 1
    99   41   57 1
   100   42   43 1
   101   42   44 1
   102   42  163 1
   103   43  164 1
   104   44   45 1
   105   44   46 1
   106   44  165 1
   107   45  166 1
   108   46   47 1
   109   46  167 1
   110   47   48 1
   111   47   49 1
   112   47  168 1
   113   49   50 1
   114   49  169 1
   115   49  170 1
   116   50  171 1
   117   51   52 1
   118   51   53 1
   119   51   59 1
   120   51  172 1
   121   52   68 1
   122   53   54 1
   123   53   55 1
   124   53  173 1
   125   54  174 1
   126   55   56 1
   127   55   57 1
   128   55  175 1
   129   56  176 1
   130   57   58 1
   131   57  177 1
   132   58   59 1
   133   58   60 1
   134   58  178 1
   135   60   61 1
   136   60  179 1
   137   60  180 1
   138   61  181 1
   139   62   63 1
   140   62   64 1
   141   62   70 1
   142   62  182 1
   143   63   79 1
   144   64   65 1
   145   64   66 1
   146   64  183 1
   147   65  184 1
   148   66   67 1
   149   66   68 1
   150   66  185 1
   151   67  186 1
   152   68   69 1
   153   68  187 1
   154   69   70 1
   155   69   71 1
   156   69  188 1
   157   71   72 1
   158   71  189 1
   159   71  190 1
   160   72  191 1
   161   73   74 1
   162   73   75 1
   163   73   81 1
   164   73  192 1
   165   74   89 1
   166   75   76 1
   167   75   77 1
   168   75  193 1
   169   76  194 1
   170   77   78 1
   171   77   79 1
   172   77  195 1
   173   78  196 1
   174   79   80 1
   175   79  197 1
   176   80   81 1
   177   80   82 1
   178   80  198 1
   179   82   83 1
   180   82  199 1
   181   82  200 1
   182   83  201 1
   183   84   85 1
   184   84   86 1
   185   84   91 1
   186   84  202 1
   187   85  108 1
   188   86   87 1
   189   86   88 1
   190   86  203 1
   191   87  204 1
   192   88   89 1
   193   88   94 1
   194   88  205 1
   195   89   90 1
   196   89  206 1
   197   90   91 1
   198   90   92 1
   199   90  207 1
   200   92   93 1
   201   92  208 1
   202   92  209 1
   203   93  210 1
   204   94   95 am
   205   94  211 1
   206   95   96 1
   207   95  100 2
   208   96   97 1
   209   96  215 1
   210   96  216 1
   211   97   98 1
   212   97  212 1
   213   97  213 1
   214   98  101 2
   215   98   99 am
   216   99  214 1
   217  102  103 1
   218  102  104 1
   219  102  110 1
   220  102  217 1
   221  104  105 1
   222  104  106 1
   223  104  218 1
   224  105  219 1
   225  106  107 1
   226  106  108 1
   227  106  220 1
   228  107  221 1
   229  108  109 1
   230  108  222 1
   231  109  110 1
   232  109  111 1
   233  109  223 1
   234  111  112 1
   235  111  224 1
   236  111  225 1
   237  112  226 1
