@<TRIPOS>MOLECULE
*****
   20    21     0     0     0
SMALL
NO_CHARGES

@<TRIPOS>ATOM
      1 C1          0.0000    0.0000    0.0000 C.ar      1 <0>         0.0000
      2 C2          0.0000    0.0000    0.0000 C.ar      1 <0>         0.0000
      3 C3          0.0000    0.0000    0.0000 C.ar      1 <0>         0.0000
      4 C4          0.0000    0.0000    0.0000 C.ar      1 <0>         0.0000
      5 C5          0.0000    0.0000    0.0000 C.ar      1 <0>         0.0000
      6 C6          0.0000    0.0000    0.0000 C.ar      1 <0>         0.0000
      7 C7          0.0000    0.0000    0.0000 C.3       1 <0>         0.0000
      8 C8          0.0000    0.0000    0.0000 C.2       1 <0>         0.0000
      9 C9          0.0000    0.0000    0.0000 C.2       1 <0>         0.0000
     10 N1          0.0000    0.0000    0.0000 N.pl3     1 <0>         0.0000
     11 S1          0.0000    0.0000    0.0000 S.o2      1 <0>         0.0000
     12 O1          0.0000    0.0000    0.0000 O.2       1 <0>         0.0000
     13 O2          0.0000    0.0000    0.0000 O.2       1 <0>         0.0000
     14 C10         0.0000    0.0000    0.0000 C.ar      1 <0>         0.0000
     15 C11         0.0000    0.0000    0.0000 C.ar      1 <0>         0.0000
     16 C12         0.0000    0.0000    0.0000 C.ar      1 <0>         0.0000
     17 C13         0.0000    0.0000    0.0000 C.ar      1 <0>         0.0000
     18 C14         0.0000    0.0000    0.0000 C.ar      1 <0>         0.0000
     19 C15         0.0000    0.0000    0.0000 C.ar      1 <0>         0.0000
     20 O3          0.0000    0.0000    0.0000 O.3       1 <0>         0.0000
@<TRIPOS>BOND
     1    1    6 ar
     2    1    2 ar
     3    2    3 ar
     4    3    4 ar
     5    4    5 ar
     6    5    6 ar
     7    4    7 1
     8    7    8 1
     9    8    9 2
    10    9   10 1
    11   10   11 1
    12   11   12 2
    13   11   13 2
    14   11   14 1
    15   14   19 ar
    16   14   15 ar
    17   15   16 ar
    18   16   17 ar
    19   17   18 ar
    20   18   19 ar
    21    9   20 1
