@<TRIPOS>MOLECULE
*****
   36    37     0     0     0
SMALL
NO_CHARGES

@<TRIPOS>ATOM
      1 C1          0.0000    0.0000    0.0000 C.3       1 <0>         0.0000
      2 C2          0.0000    0.0000    0.0000 C.2       1 <0>         0.0000
      3 O1          0.0000    0.0000    0.0000 O.3       1 <0>         0.0000
      4 N1          0.0000    0.0000    0.0000 N.am      1 <0>         0.0000
      5 C3          0.0000    0.0000    0.0000 C.3       1 <0>         0.0000
      6 C4          0.0000    0.0000    0.0000 C.3       1 <0>         0.0000
      7 C5          0.0000    0.0000    0.0000 C.3       1 <0>         0.0000
      8 C6          0.0000    0.0000    0.0000 C.ar      1 <0>         0.0000
      9 C7          0.0000    0.0000    0.0000 C.ar      1 <0>         0.0000
     10 C8          0.0000    0.0000    0.0000 C.ar      1 <0>         0.0000
     11 C9          0.0000    0.0000    0.0000 C.ar      1 <0>         0.0000
     12 C10         0.0000    0.0000    0.0000 C.ar      1 <0>         0.0000
     13 C11         0.0000    0.0000    0.0000 C.ar      1 <0>         0.0000
     14 C12         0.0000    0.0000    0.0000 C.3       1 <0>         0.0000
     15 S1          0.0000    0.0000    0.0000 S.o2      1 <0>         0.0000
     16 O2          0.0000    0.0000    0.0000 O.2       1 <0>         0.0000
     17 O3          0.0000    0.0000    0.0000 O.2       1 <0>         0.0000
     18 C13         0.0000    0.0000    0.0000 C.3       1 <0>         0.0000
     19 H           0.0000    0.0000    0.0000 H         1 <0>         0.0000
     20 H           0.0000    0.0000    0.0000 H         1 <0>         0.0000
     21 H           0.0000    0.0000    0.0000 H         1 <0>         0.0000
     22 H           0.0000    0.0000    0.0000 H         1 <0>         0.0000
     23 H           0.0000    0.0000    0.0000 H         1 <0>         0.0000
     24 H           0.0000    0.0000    0.0000 H         1 <0>         0.0000
     25 H           0.0000    0.0000    0.0000 H         1 <0>         0.0000
     26 H           0.0000    0.0000    0.0000 H         1 <0>         0.0000
     27 H           0.0000    0.0000    0.0000 H         1 <0>         0.0000
     28 H           0.0000    0.0000    0.0000 H         1 <0>         0.0000
     29 H           0.0000    0.0000    0.0000 H         1 <0>         0.0000
     30 H           0.0000    0.0000    0.0000 H         1 <0>         0.0000
     31 H           0.0000    0.0000    0.0000 H         1 <0>         0.0000
     32 H           0.0000    0.0000    0.0000 H         1 <0>         0.0000
     33 H           0.0000    0.0000    0.0000 H         1 <0>         0.0000
     34 H           0.0000    0.0000    0.0000 H         1 <0>         0.0000
     35 H           0.0000    0.0000    0.0000 H         1 <0>         0.0000
     36 H           0.0000    0.0000    0.0000 H         1 <0>         0.0000
@<TRIPOS>BOND
     1    1    2 1
     2    2    3 2
     3    2    4 am
     4    4    5 1
     5    5   18 1
     6    5    6 1
     7    6    7 1
     8    7    8 1
     9    8   13 ar
    10    8    9 ar
    11    9   10 ar
    12   10   11 ar
    13   11   12 ar
    14   12   13 ar
    15    5   14 1
    16   14   15 1
    17   15   16 2
    18   15   17 2
    19   15   18 1
    20    1   19 1
    21    1   20 1
    22    1   21 1
    23    3   22 1
    24    4   23 1
    25    6   24 1
    26    6   25 1
    27    7   26 1
    28    7   27 1
    29    9   28 1
    30   10   29 1
    31   11   30 1
    32   12   31 1
    33   13   32 1
    34   14   33 1
    35   14   34 1
    36   18   35 1
    37   18   36 1
