@<TRIPOS>MOLECULE
*****
   21    23     0     0     0
SMALL
NO_CHARGES

@<TRIPOS>ATOM
      1 O1          0.0000    0.0000    0.0000 O.2       1 <0>         0.0000
      2 S1          0.0000    0.0000    0.0000 S.o2      1 <0>         0.0000
      3 O2          0.0000    0.0000    0.0000 O.2       1 <0>         0.0000
      4 N1          0.0000    0.0000    0.0000 N.2       1 <0>         0.0000
      5 C1          0.0000    0.0000    0.0000 C.2       1 <0>         0.0000
      6 C2          0.0000    0.0000    0.0000 C.2       1 <0>         0.0000
      7 C3          0.0000    0.0000    0.0000 C.2       1 <0>         0.0000
      8 O3          0.0000    0.0000    0.0000 O.3       1 <0>         0.0000
      9 N2          0.0000    0.0000    0.0000 N.pl3     1 <0>         0.0000
     10 C4          0.0000    0.0000    0.0000 C.ar      1 <0>         0.0000
     11 C5          0.0000    0.0000    0.0000 C.ar      1 <0>         0.0000
     12 C6          0.0000    0.0000    0.0000 C.ar      1 <0>         0.0000
     13 C7          0.0000    0.0000    0.0000 C.ar      1 <0>         0.0000
     14 C8          0.0000    0.0000    0.0000 C.ar      1 <0>         0.0000
     15 C9          0.0000    0.0000    0.0000 C.ar      1 <0>         0.0000
     16 C10         0.0000    0.0000    0.0000 C.ar      1 <0>         0.0000
     17 C11         0.0000    0.0000    0.0000 C.ar      1 <0>         0.0000
     18 C12         0.0000    0.0000    0.0000 C.ar      1 <0>         0.0000
     19 C13         0.0000    0.0000    0.0000 C.ar      1 <0>         0.0000
     20 C14         0.0000    0.0000    0.0000 C.ar      1 <0>         0.0000
     21 C15         0.0000    0.0000    0.0000 C.ar      1 <0>         0.0000
@<TRIPOS>BOND
     1    1    2 2
     2    2    3 2
     3    2    4 1
     4    4    5 2
     5    5    9 1
     6    5    6 1
     7    6    7 2
     8    7    8 1
     9    8    9 1
    10    7   10 1
    11   10   15 ar
    12   10   11 ar
    13   11   12 ar
    14   12   13 ar
    15   13   14 ar
    16   14   15 ar
    17    2   16 1
    18   16   21 ar
    19   16   17 ar
    20   17   18 ar
    21   18   19 ar
    22   19   20 ar
    23   20   21 ar
