@<TRIPOS>MOLECULE
*****
   18    19     0     0     0
SMALL
NO_CHARGES

@<TRIPOS>ATOM
      1 C1          0.0000    0.0000    0.0000 C.3       1 <0>         0.0000
      2 N1          0.0000    0.0000    0.0000 N.pl3     1 <0>         0.0000
      3 C2          0.0000    0.0000    0.0000 C.3       1 <0>         0.0000
      4 S1          0.0000    0.0000    0.0000 S.o2      1 <0>         0.0000
      5 O1          0.0000    0.0000    0.0000 O.2       1 <0>         0.0000
      6 O2          0.0000    0.0000    0.0000 O.2       1 <0>         0.0000
      7 N2          0.0000    0.0000    0.0000 N.2       1 <0>         0.0000
      8 C3          0.0000    0.0000    0.0000 C.2       1 <0>         0.0000
      9 C4          0.0000    0.0000    0.0000 C.2       1 <0>         0.0000
     10 C5          0.0000    0.0000    0.0000 C.2       1 <0>         0.0000
     11 O3          0.0000    0.0000    0.0000 O.3       1 <0>         0.0000
     12 N3          0.0000    0.0000    0.0000 N.pl3     1 <0>         0.0000
     13 C6          0.0000    0.0000    0.0000 C.ar      1 <0>         0.0000
     14 C7          0.0000    0.0000    0.0000 C.ar      1 <0>         0.0000
     15 C8          0.0000    0.0000    0.0000 C.ar      1 <0>         0.0000
     16 C9          0.0000    0.0000    0.0000 C.ar      1 <0>         0.0000
     17 C10         0.0000    0.0000    0.0000 C.ar      1 <0>         0.0000
     18 C11         0.0000    0.0000    0.0000 C.ar      1 <0>         0.0000
@<TRIPOS>BOND
     1    1    2 1
     2    2    3 1
     3    2    4 1
     4    4    5 2
     5    4    6 2
     6    4    7 1
     7    7    8 2
     8    8   12 1
     9    8    9 1
    10    9   10 2
    11   10   11 1
    12   11   12 1
    13   10   13 1
    14   13   18 ar
    15   13   14 ar
    16   14   15 ar
    17   15   16 ar
    18   16   17 ar
    19   17   18 ar
